#---------------------------------------------------------------------------
#  CTI File converted from Solution Object
#---------------------------------------------------------------------------

units(length = "cm", time = "s", quantity = "mol", act_energy = "cal/mol")

ideal_gas(name = "gas", 
     elements = "N H O C E", 
     species = """ N2 H2 H O2 O H2O OH H2O2 HO2 CO CO2 CH4 CH3 CH2 
                 CH2(S) C CH CH3O2 CH3OH CH3O CH2OH CH2O HCO C2H6 C2H5 C2H4 C2H3 C2H2 
                 C2H CH3CHO CH3CO CH2CHO CH2CO HCCO C3H6 C3H5-A CHO+ 
                 C2H3O+ CH5O+ H3O+ OH- O2- E """, 
     reactions = "all", 
     initial_state = state(temperature = 3.000000E+02, pressure= 1.013250E+05)   )       

#---------------------------------------------------------------------------
#  Species data
#---------------------------------------------------------------------------

species(name = "N2",
    atoms = "N:2", 
    thermo = (
       NASA(   [200.0, 1050.0], [3.731006820e+00, -1.831597300e-03,
                4.323246620e-06, -3.043781510e-09,
                7.460715620e-13, -1.062874260e+03,
                2.168211980e+00]  ),
       NASA(   [1050.0, 3500.0], [2.811660730e+00, 1.670673530e-03,
                -6.799974280e-07, 1.328813790e-10,
                -1.027674420e-14,
                -8.698115790e+02, 6.648380500e+00]  )
               ),
    transport = gas_transport(
                   geom = "linear",
                   diam = 3.621, 
                   well_depth = 97.53, 
                   polar = 1.76, 
                   rot_relax = 4.0, 
                   quad_polar = 0.0, 
                   disp_coeff = 0.0) 
        )

species(name = "H2",
    atoms = "H:2", 
    thermo = (
       NASA(   [200.0, 700.0], [2.642044380e+00, 5.495292740e-03,
                -1.271636340e-05, 1.287491730e-08,
                -4.700277490e-12,
                -9.432366140e+02,
                -5.122311020e-01]  ),
       NASA(   [700.0, 3500.0], [3.781998810e+00, -1.018732590e-03,
                1.242262330e-06, -4.190118980e-10,
                4.755437930e-14, -1.102830230e+03,
                -5.605259100e+00]  )
               ),
    transport = gas_transport(
                   geom = "linear",
                   diam = 2.9200000000000004, 
                   well_depth = 38.0, 
                   polar = 0.7900000000000001, 
                   rot_relax = 280.0, 
                   quad_polar = 0.0, 
                   disp_coeff = 0.0) 
        )

species(name = "H",
    atoms = "H:1", 
    thermo = (
       NASA(   [200.0, 860.0], [2.499505440e+00, 2.991640460e-06,
                -5.927597590e-09, 4.878101650e-12,
                -1.455393200e-15, 2.547378660e+04,
                -4.445740180e-01]  ),
       NASA(   [860.0, 3500.0], [2.500314930e+00, -7.734068280e-07,
                6.393453460e-10, -2.125517910e-13,
                2.444791910e-17, 2.547364740e+04,
                -4.483572280e-01]  )
               ),
    transport = gas_transport(
                   geom = "atom",
                   diam = 2.05, 
                   well_depth = 145.0, 
                   polar = 0.0, 
                   rot_relax = 0.0, 
                   quad_polar = 0.0, 
                   disp_coeff = 0.0) 
        )

species(name = "O2",
    atoms = "O:2", 
    thermo = (
       NASA(   [200.0, 700.0], [3.744039210e+00, -2.797401470e-03,
                9.801225580e-06, -1.032596430e-08,
                3.799312470e-12, -1.060698270e+03,
                3.821326460e+00]  ),
       NASA(   [700.0, 3500.0], [2.820124080e+00, 2.482113570e-03,
                -1.512020940e-06, 4.485562010e-10,
                -4.873056680e-14,
                -9.313501480e+02, 7.949145520e+00]  )
               ),
    transport = gas_transport(
                   geom = "linear",
                   diam = 3.458, 
                   well_depth = 107.4, 
                   polar = 1.6, 
                   rot_relax = 3.8, 
                   quad_polar = 0.0, 
                   disp_coeff = 0.0) 
        )

species(name = "O",
    atoms = "O:1", 
    thermo = (
       NASA(   [200.0, 720.0], [3.147992010e+00, -3.111740650e-03,
                6.181378970e-06, -5.638087980e-09,
                1.948660160e-12, 2.913091180e+04,
                2.134465490e+00]  ),
       NASA(   [720.0, 3500.0], [2.625491430e+00, -2.089596440e-04,
                1.339185460e-07, -3.858758960e-11,
                4.389186890e-15, 2.920615190e+04,
                4.483585190e+00]  )
               ),
    transport = gas_transport(
                   geom = "atom",
                   diam = 2.7500000000000004, 
                   well_depth = 80.0, 
                   polar = 0.0, 
                   rot_relax = 0.0, 
                   quad_polar = 0.0, 
                   disp_coeff = 0.0) 
        )

species(name = "H2O",
    atoms = "H:2  O:1", 
    thermo = (
       NASA(   [200.0, 1420.0], [4.060611720e+00, -8.658071890e-04,
                3.244095280e-06, -1.802430790e-09,
                3.324832930e-13, -3.028313140e+04,
                -2.961504810e-01]  ),
       NASA(   [1420.0, 3500.0], [2.667770750e+00, 3.057688490e-03,
                -9.004424110e-07, 1.433615520e-10,
                -1.008578170e-14,
                -2.988756450e+04, 6.911911310e+00]  )
               ),
    transport = gas_transport(
                   geom = "nonlinear",
                   diam = 2.6050000000000004, 
                   well_depth = 572.4, 
                   polar = 0.0, 
                   rot_relax = 4.0, 
                   disp_coeff = 0.0, 
                   quad_polar = 0.0, 
                   dipole= 1.8440005262719967) 
        )

species(name = "OH",
    atoms = "H:1  O:1", 
    thermo = (
       NASA(   [200.0, 1700.0], [3.913546310e+00, -1.662759260e-03,
                2.309200290e-06, -1.023595080e-09,
                1.588296290e-13, 3.400050470e+03,
                2.054747190e-01]  ),
       NASA(   [1700.0, 3500.0], [2.498673690e+00, 1.666352790e-03,
                -6.282515160e-07, 1.283468060e-10,
                -1.057358940e-14, 3.881107160e+03,
                7.782188620e+00]  )
               ),
    transport = gas_transport(
                   geom = "linear",
                   diam = 2.7500000000000004, 
                   well_depth = 80.0, 
                   polar = 0.0, 
                   rot_relax = 0.0, 
                   quad_polar = 0.0, 
                   disp_coeff = 0.0) 
        )

species(name = "H2O2",
    atoms = "H:2  O:2", 
    thermo = (
       NASA(   [200.0, 1800.0], [3.347742240e+00, 7.050054370e-03,
                -3.845220060e-06, 1.167206610e-09,
                -1.476181050e-13,
                -1.757847850e+04, 7.178688510e+00]  ),
       NASA(   [1800.0, 3500.0], [4.768696390e+00, 3.892378480e-03,
                -1.213823490e-06, 1.926152850e-10,
                -1.225819900e-14,
                -1.809002200e+04,
                -5.118117770e-01]  )
               ),
    transport = gas_transport(
                   geom = "nonlinear",
                   diam = 3.458, 
                   well_depth = 107.4, 
                   polar = 0.0, 
                   rot_relax = 3.8, 
                   quad_polar = 0.0, 
                   disp_coeff = 0.0) 
        )

species(name = "HO2",
    atoms = "H:1  O:2", 
    thermo = (
       NASA(   [200.0, 700.0], [3.619942990e+00, 1.058057050e-03,
                5.066789410e-06, -6.338007620e-09,
                2.415972810e-12, 3.158982340e+02,
                6.444114820e+00]  ),
       NASA(   [700.0, 3500.0], [3.023918890e+00, 4.463909070e-03,
                -2.231464920e-06, 6.127107990e-10,
                -6.642662370e-14, 3.993416090e+02,
                9.106999730e+00]  )
               ),
    transport = gas_transport(
                   geom = "nonlinear",
                   diam = 3.458, 
                   well_depth = 107.4, 
                   polar = 0.0, 
                   rot_relax = 1.0, 
                   quad_polar = 0.0, 
                   disp_coeff = 0.0) 
        )

species(name = "CO",
    atoms = "C:1  O:1", 
    thermo = (
       NASA(   [200.0, 960.0], [3.757238910e+00, -2.144652410e-03,
                5.420790050e-06, -4.170259630e-09,
                1.119011270e-12, -1.435755300e+04,
                2.799767990e+00]  ),
       NASA(   [960.0, 3500.0], [2.792553810e+00, 1.874868860e-03,
                -8.597119260e-07, 1.912000700e-10,
                -1.678552860e-14,
                -1.417233350e+04, 7.414435600e+00]  )
               ),
    transport = gas_transport(
                   geom = "linear",
                   diam = 3.65, 
                   well_depth = 98.1, 
                   polar = 1.9500000000000002, 
                   rot_relax = 1.8, 
                   quad_polar = 0.0, 
                   disp_coeff = 0.0) 
        )

species(name = "CO2",
    atoms = "C:1  O:2", 
    thermo = (
       NASA(   [200.0, 1450.0], [2.316843470e+00, 9.227550360e-03,
                -7.756540930e-06, 3.282253600e-09,
                -5.487224820e-13,
                -4.836260670e+04, 1.007862340e+01]  ),
       NASA(   [1450.0, 3500.0], [4.708764680e+00, 2.629147040e-03,
                -9.306064620e-07, 1.438929200e-10,
                -7.625814140e-15,
                -4.905626390e+04,
                -2.349764520e+00]  )
               ),
    transport = gas_transport(
                   geom = "linear",
                   diam = 3.763, 
                   well_depth = 244.0, 
                   polar = 2.6500000000000004, 
                   rot_relax = 2.1, 
                   quad_polar = 0.0, 
                   disp_coeff = 0.0) 
        )

species(name = "CH4",
    atoms = "C:1  H:4", 
    thermo = (
       NASA(   [300.0, 700.0], [5.239673350e+00, -1.468351230e-02,
                5.297327110e-05, -5.416688220e-08,
                1.963185660e-11, -1.025263080e+04,
                -4.976497480e+00]  ),
       NASA(   [700.0, 3500.0], [5.053464050e-01, 1.236978450e-02,
                -4.998079220e-06, 1.043927650e-09,
                -8.628974160e-14,
                -9.589825010e+03, 1.617527750e+01]  )
               ),
    transport = gas_transport(
                   geom = "nonlinear",
                   diam = 3.7460000000000004, 
                   well_depth = 141.4, 
                   polar = 2.6, 
                   rot_relax = 13.0, 
                   quad_polar = 0.0, 
                   disp_coeff = 0.0) 
        )

species(name = "CH3",
    atoms = "C:1  H:3", 
    thermo = (
       NASA(   [300.0, 1060.0], [3.478293100e+00, 3.547647730e-03,
                1.474084400e-06, -1.943759550e-09,
                5.219212320e-13, 1.643995160e+04,
                2.408759560e+00]  ),
       NASA(   [1060.0, 3500.0], [2.788051040e+00, 6.152334770e-03,
                -2.211793490e-06, 3.744026480e-10,
                -2.481513490e-14, 1.658628290e+04,
                5.778998180e+00]  )
               ),
    transport = gas_transport(
                   geom = "linear",
                   diam = 3.8, 
                   well_depth = 144.0, 
                   polar = 0.0, 
                   rot_relax = 0.0, 
                   quad_polar = 0.0, 
                   disp_coeff = 0.0) 
        )

species(name = "CH2",
    atoms = "C:1  H:2", 
    thermo = (
       NASA(   [300.0, 1800.0], [3.764894600e+00, 1.438391910e-03,
                4.755830770e-07, -4.317885910e-10,
                7.582928740e-14, 4.586456990e+04,
                1.489531530e+00]  ),
       NASA(   [1800.0, 3500.0], [2.812729720e+00, 3.554313880e-03,
                -1.287685230e-06, 2.212737440e-10,
                -1.487381470e-14, 4.620734920e+04,
                6.642846520e+00]  )
               ),
    transport = gas_transport(
                   geom = "linear",
                   diam = 3.8, 
                   well_depth = 144.0, 
                   polar = 0.0, 
                   rot_relax = 0.0, 
                   quad_polar = 0.0, 
                   disp_coeff = 0.0) 
        )

species(name = "CH2(S)",
    atoms = "C:1  H:2", 
    thermo = (
       NASA(   [300.0, 970.0], [4.181854340e+00, -2.211343140e-03,
                7.715275410e-06, -5.959503810e-09,
                1.583146280e-12, 5.036694070e+04,
                -7.030026020e-01]  ),
       NASA(   [970.0, 3500.0], [2.759342990e+00, 3.654683070e-03,
                -1.355899140e-06, 2.749804110e-10,
                -2.367954720e-14, 5.064290790e+04,
                6.116463830e+00]  )
               ),
    transport = gas_transport(
                   geom = "linear",
                   diam = 3.8, 
                   well_depth = 144.0, 
                   polar = 0.0, 
                   rot_relax = 0.0, 
                   quad_polar = 0.0, 
                   disp_coeff = 0.0) 
        )

species(name = "C",
    atoms = "C:1", 
    thermo = (
       NASA(   [200.0, 700.0], [2.544951920e+00, -2.477252810e-04,
                5.480182770e-07, -5.485512500e-10,
                2.041173310e-13, 8.544341050e+04,
                4.568742730e+00]  ),
       NASA(   [700.0, 3500.0], [2.494725310e+00, 3.928394760e-05,
                -6.700149800e-08, 3.718186940e-11,
                -5.073068850e-15, 8.545044220e+04,
                4.793142540e+00]  )
               ),
    transport = gas_transport(
                   geom = "atom",
                   diam = 3.2980000000000005, 
                   well_depth = 71.4, 
                   polar = 0.0, 
                   rot_relax = 0.0, 
                   quad_polar = 0.0, 
                   disp_coeff = 0.0) 
        )

species(name = "CH",
    atoms = "C:1  H:1", 
    thermo = (
       NASA(   [300.0, 1590.0], [3.772643320e+00, -1.585473500e-03,
                2.835122380e-06, -1.361460580e-09,
                2.239953320e-13, 7.063124920e+04,
                8.794079040e-01]  ),
       NASA(   [1590.0, 3500.0], [2.279901280e+00, 2.169852380e-03,
                -7.076378850e-07, 1.239734940e-10,
                -9.563485150e-15, 7.110594120e+04,
                8.773260610e+00]  )
               ),
    transport = gas_transport(
                   geom = "linear",
                   diam = 2.7500000000000004, 
                   well_depth = 80.0, 
                   polar = 0.0, 
                   rot_relax = 0.0, 
                   quad_polar = 0.0, 
                   disp_coeff = 0.0) 
        )

species(name = "CH3O2",
    atoms = "C:1  H:3  O:2", 
    thermo = (
       NASA(   [300.0, 1800.0], [1.442896320e+00, 1.807333140e-02,
                -1.099465450e-05, 3.423339840e-09,
                -4.344521420e-13, 3.213663900e+02,
                1.930412930e+01]  ),
       NASA(   [1800.0, 3500.0], [5.641418170e+00, 8.743282810e-03,
                -3.219614060e-06, 5.436952180e-10,
                -3.450150080e-14,
                -1.190101480e+03,
                -3.419146830e+00]  )
               ),
    transport = gas_transport(
                   geom = "nonlinear",
                   diam = 3.6260000000000003, 
                   well_depth = 481.8, 
                   polar = 0.0, 
                   rot_relax = 1.0, 
                   quad_polar = 0.0, 
                   disp_coeff = 0.0) 
        )

species(name = "CH3OH",
    atoms = "C:1  H:4  O:1", 
    thermo = (
       NASA(   [300.0, 1800.0], [8.473304790e-01, 1.630869040e-02,
                -8.483449610e-06, 2.293043410e-09,
                -2.599520130e-13,
                -2.509625440e+04, 1.959332970e+01]  ),
       NASA(   [1800.0, 3500.0], [2.717015300e+00, 1.215383530e-02,
                -5.021070310e-06, 1.010680700e-09,
                -8.184608230e-14,
                -2.576934090e+04, 9.474205400e+00]  )
               ),
    transport = gas_transport(
                   geom = "nonlinear",
                   diam = 3.6260000000000003, 
                   well_depth = 481.8, 
                   polar = 0.0, 
                   rot_relax = 1.0, 
                   quad_polar = 0.0, 
                   disp_coeff = 0.0) 
        )

species(name = "CH3O",
    atoms = "C:1  H:3  O:1", 
    thermo = (
       NASA(   [300.0, 1740.0], [8.896609850e-01, 1.701197670e-02,
                -1.138073510e-05, 3.882809280e-09,
                -5.328414790e-13, 1.603161210e+03,
                1.850011340e+01]  ),
       NASA(   [1740.0, 3500.0], [5.722380620e+00, 5.902276370e-03,
                -1.803407200e-06, 2.133350090e-10,
                -5.618164090e-15,
                -7.862522250e+01,
                -7.491736770e+00]  )
               ),
    transport = gas_transport(
                   geom = "nonlinear",
                   diam = 3.6900000000000004, 
                   well_depth = 417.0, 
                   polar = 0.0, 
                   rot_relax = 2.0, 
                   disp_coeff = 0.0, 
                   quad_polar = 0.0, 
                   dipole= 1.7000004851748343) 
        )

species(name = "CH2OH",
    atoms = "C:1  H:3  O:1", 
    thermo = (
       NASA(   [300.0, 1360.0], [2.348215790e+00, 1.396001680e-02,
                -1.086322060e-05, 4.624984160e-09,
                -8.084991620e-13,
                -3.302221060e+03, 1.226619770e+01]  ),
       NASA(   [1360.0, 3500.0], [5.045349500e+00, 6.027270590e-03,
                -2.113868210e-06, 3.360859050e-10,
                -2.009874820e-14,
                -4.035841430e+03,
                -1.575240730e+00]  )
               ),
    transport = gas_transport(
                   geom = "nonlinear",
                   diam = 3.6900000000000004, 
                   well_depth = 417.0, 
                   polar = 0.0, 
                   rot_relax = 2.0, 
                   disp_coeff = 0.0, 
                   quad_polar = 0.0, 
                   dipole= 1.7000004851748343) 
        )

species(name = "CH2O",
    atoms = "C:1  H:2  O:1", 
    thermo = (
       NASA(   [300.0, 700.0], [4.326212960e+00, -7.011518530e-03,
                3.151769610e-05, -3.364786380e-08,
                1.234540230e-11, -1.432701690e+04,
                2.620289020e+00]  ),
       NASA(   [700.0, 3500.0], [1.333356520e+00, 1.009051830e-02,
                -5.129525620e-06, 1.254252070e-09,
                -1.196391090e-13,
                -1.390801700e+04, 1.599161440e+01]  )
               ),
    transport = gas_transport(
                   geom = "nonlinear",
                   diam = 3.59, 
                   well_depth = 498.00000000000006, 
                   polar = 0.0, 
                   rot_relax = 2.0, 
                   quad_polar = 0.0, 
                   disp_coeff = 0.0) 
        )

species(name = "HCO",
    atoms = "C:1  H:1  O:1", 
    thermo = (
       NASA(   [200.0, 770.0], [4.034839790e+00, -2.158368640e-03,
                1.182338750e-05, -1.184594060e-08,
                4.005939540e-12, 3.836363920e+03,
                4.200087700e+00]  ),
       NASA(   [770.0, 3500.0], [2.600493180e+00, 5.292782580e-03,
                -2.691842110e-06, 7.213577980e-10,
                -7.435214090e-14, 4.057253300e+03,
                1.074509330e+01]  )
               ),
    transport = gas_transport(
                   geom = "nonlinear",
                   diam = 3.59, 
                   well_depth = 498.00000000000006, 
                   polar = 0.0, 
                   rot_relax = 0.0, 
                   quad_polar = 0.0, 
                   disp_coeff = 0.0) 
        )

species(name = "C2H6",
    atoms = "C:2  H:6", 
    thermo = (
       NASA(   [300.0, 1800.0], [-2.417787240e-01, 2.534757090e-02,
                -1.396451120e-05, 4.032574520e-09,
                -4.877543870e-13,
                -1.103911210e+04, 2.195726250e+01]  ),
       NASA(   [1800.0, 3500.0], [4.079591410e+00, 1.574452610e-02,
                -5.961973930e-06, 1.068671820e-09,
                -7.610123400e-14,
                -1.259480530e+04,
                -1.430894120e+00]  )
               ),
    transport = gas_transport(
                   geom = "nonlinear",
                   diam = 4.35, 
                   well_depth = 247.5, 
                   polar = 0.0, 
                   rot_relax = 1.5, 
                   quad_polar = 0.0, 
                   disp_coeff = 0.0) 
        )

species(name = "C2H5",
    atoms = "C:2  H:5", 
    thermo = (
       NASA(   [300.0, 1800.0], [6.754218010e-01, 2.115426170e-02,
                -1.208780170e-05, 3.649511800e-09,
                -4.597532370e-13, 1.334571860e+04,
                1.956284390e+01]  ),
       NASA(   [1800.0, 3500.0], [5.197913600e+00, 1.110428000e-02,
                -3.712816860e-06, 5.476655710e-10,
                -2.894126040e-14, 1.171762150e+04,
                -4.913825130e+00]  )
               ),
    transport = gas_transport(
                   geom = "nonlinear",
                   diam = 4.35, 
                   well_depth = 247.5, 
                   polar = 0.0, 
                   rot_relax = 1.5, 
                   quad_polar = 0.0, 
                   disp_coeff = 0.0) 
        )

species(name = "C2H4",
    atoms = "C:2  H:4", 
    thermo = (
       NASA(   [300.0, 1650.0], [-6.029324500e-02, 2.081339700e-02,
                -1.343078670e-05, 4.606383010e-09,
                -6.516874810e-13, 5.511516760e+03,
                2.106421720e+01]  ),
       NASA(   [1650.0, 3500.0], [4.604027180e+00, 9.505953500e-03,
                -3.151292610e-06, 4.530520740e-10,
                -2.239491590e-14, 3.972291020e+03,
                -3.774209050e+00]  )
               ),
    transport = gas_transport(
                   geom = "nonlinear",
                   diam = 3.496, 
                   well_depth = 238.4, 
                   polar = 0.0, 
                   rot_relax = 1.5, 
                   quad_polar = 0.0, 
                   disp_coeff = 0.0) 
        )

species(name = "C2H3",
    atoms = "C:2  H:3", 
    thermo = (
       NASA(   [300.0, 1450.0], [1.234212140e+00, 1.562222040e-02,
                -1.101715720e-05, 4.279893370e-09,
                -6.915415090e-13, 3.469676920e+04,
                1.686370480e+01]  ),
       NASA(   [1450.0, 3500.0], [4.187283760e+00, 7.475815880e-03,
                -2.589842270e-06, 4.052657950e-10,
                -2.350227210e-14, 3.384037850e+04,
                1.519587510e+00]  )
               ),
    transport = gas_transport(
                   geom = "nonlinear",
                   diam = 3.7210000000000005, 
                   well_depth = 265.3, 
                   polar = 0.0, 
                   rot_relax = 1.0, 
                   quad_polar = 0.0, 
                   disp_coeff = 0.0) 
        )

species(name = "C2H2",
    atoms = "C:2  H:2", 
    thermo = (
       NASA(   [300.0, 790.0], [7.705369070e-01, 2.371079980e-02,
                -3.666220440e-05, 2.959897610e-08,
                -9.275792550e-12, 2.643179750e+04,
                1.409076830e+01]  ),
       NASA(   [790.0, 3500.0], [4.372674540e+00, 5.472128300e-03,
                -2.031815420e-06, 3.750191160e-10,
                -2.770490620e-14, 2.586265970e+04,
                -2.438359210e+00]  )
               ),
    transport = gas_transport(
                   geom = "linear",
                   diam = 3.7210000000000005, 
                   well_depth = 265.3, 
                   polar = 0.0, 
                   rot_relax = 2.5, 
                   quad_polar = 0.0, 
                   disp_coeff = 0.0) 
        )

species(name = "C2H",
    atoms = "C:2  H:1", 
    thermo = (
       NASA(   [300.0, 1710.0], [4.608735990e+00, 1.427667850e-03,
                8.541586430e-07, -6.839033440e-10,
                1.219405890e-13, 6.688017720e+04,
                -1.058940680e+00]  ),
       NASA(   [1710.0, 3500.0], [3.417882570e+00, 4.213289890e-03,
                -1.589369460e-06, 2.687391910e-10,
                -1.733463590e-14, 6.728744910e+04,
                5.325123670e+00]  )
               ),
    transport = gas_transport(
                   geom = "linear",
                   diam = 3.7210000000000005, 
                   well_depth = 265.3, 
                   polar = 0.0, 
                   rot_relax = 2.5, 
                   quad_polar = 0.0, 
                   disp_coeff = 0.0) 
        )

species(name = "CH3CHO",
    atoms = "C:2  H:4  O:1", 
    thermo = (
       NASA(   [300.0, 1800.0], [9.759166370e-01, 2.231678710e-02,
                -1.346678680e-05, 4.198836620e-09,
                -5.363971870e-13,
                -2.117356210e+04, 2.007856130e+01]  ),
       NASA(   [1800.0, 3500.0], [6.221953710e+00, 1.065892700e-02,
                -3.751903290e-06, 6.007316280e-10,
                -3.666038240e-14,
                -2.306213550e+04,
                -8.314085770e+00]  )
               ),
    transport = gas_transport(
                   geom = "nonlinear",
                   diam = 3.97, 
                   well_depth = 436.0, 
                   polar = 0.0, 
                   rot_relax = 2.0, 
                   quad_polar = 0.0, 
                   disp_coeff = 0.0) 
        )

species(name = "CH3CO",
    atoms = "C:2  H:3  O:1", 
    thermo = (
       NASA(   [300.0, 1800.0], [1.473880640e+00, 1.835870340e-02,
                -1.134264170e-05, 3.595769310e-09,
                -4.639992670e-13,
                -2.410927050e+03, 1.875752320e+01]  ),
       NASA(   [1800.0, 3500.0], [6.076890160e+00, 8.129793390e-03,
                -2.818549990e-06, 4.386983070e-10,
                -2.551718370e-14,
                -4.068010470e+03,
                -6.154924530e+00]  )
               ),
    transport = gas_transport(
                   geom = "nonlinear",
                   diam = 3.97, 
                   well_depth = 436.0, 
                   polar = 0.0, 
                   rot_relax = 2.0, 
                   quad_polar = 0.0, 
                   disp_coeff = 0.0) 
        )

species(name = "CH2CHO",
    atoms = "C:2  H:3  O:1", 
    thermo = (
       NASA(   [300.0, 1340.0], [7.378682810e-01, 2.504543570e-02,
                -2.201350260e-05, 1.000312940e-08,
                -1.808363570e-12, 3.763893390e+02,
                2.099628370e+01]  ),
       NASA(   [1340.0, 3500.0], [6.477037920e+00, 7.913586040e-03,
                -2.836058910e-06, 4.621126550e-10,
                -2.832312970e-14,
                -1.161708120e+03,
                -8.371572860e+00]  )
               ),
    transport = gas_transport(
                   geom = "nonlinear",
                   diam = 3.97, 
                   well_depth = 436.0, 
                   polar = 0.0, 
                   rot_relax = 2.0, 
                   quad_polar = 0.0, 
                   disp_coeff = 0.0) 
        )

species(name = "CH2CO",
    atoms = "C:2  H:2  O:1", 
    thermo = (
       NASA(   [300.0, 1360.0], [2.495039780e+00, 1.588075920e-02,
                -1.271714440e-05, 5.472261190e-09,
                -9.591407180e-13,
                -7.188989600e+03, 1.181156570e+01]  ),
       NASA(   [1360.0, 3500.0], [5.695236280e+00, 6.468416580e-03,
                -2.335884140e-06, 3.834081100e-10,
                -2.368978500e-14,
                -8.059443050e+03,
                -4.611544030e+00]  )
               ),
    transport = gas_transport(
                   geom = "nonlinear",
                   diam = 3.97, 
                   well_depth = 436.0, 
                   polar = 0.0, 
                   rot_relax = 2.0, 
                   quad_polar = 0.0, 
                   disp_coeff = 0.0) 
        )

species(name = "HCCO",
    atoms = "C:2  H:1  O:1", 
    thermo = (
       NASA(   [300.0, 1220.0], [3.330286610e+00, 1.203516290e-02,
                -1.142479490e-05, 5.707312670e-09,
                -1.136181050e-12, 2.000875430e+04,
                7.536503870e+00]  ),
       NASA(   [1220.0, 3500.0], [5.814205130e+00, 3.891167790e-03,
                -1.411686080e-06, 2.356685330e-10,
                -1.494249710e-14, 1.940267820e+04,
                -4.940896470e+00]  )
               ),
    transport = gas_transport(
                   geom = "nonlinear",
                   diam = 2.5, 
                   well_depth = 150.0, 
                   polar = 0.0, 
                   rot_relax = 1.0, 
                   quad_polar = 0.0, 
                   disp_coeff = 0.0) 
        )

species(name = "C3H6",
    atoms = "C:3  H:6", 
    thermo = (
       NASA(   [298.0, 1800.0], [-8.559871880e-02, 3.081122550e-02,
                -1.845740960e-05, 5.686864910e-09,
                -7.137476740e-13, 1.925678190e+03,
                2.409356870e+01]  ),
       NASA(   [1800.0, 3500.0], [6.317552010e+00, 1.658200170e-02,
                -6.599723020e-06, 1.295129160e-09,
                -1.037843750e-13,
                -3.794560710e+02,
                -1.056161870e+01]  )
               ),
    transport = gas_transport(
                   geom = "nonlinear",
                   diam = 4.14, 
                   well_depth = 307.8, 
                   polar = 0.0, 
                   rot_relax = 1.0, 
                   quad_polar = 0.0, 
                   disp_coeff = 0.0) 
        )

species(name = "C3H5-A",
    atoms = "C:3  H:5", 
    thermo = (
       NASA(   [298.0, 1600.0], [-3.578880960e-01, 3.270285360e-02,
                -2.400535800e-05, 9.073457290e-09,
                -1.370164870e-12, 2.002356950e+04,
                2.428456030e+01]  ),
       NASA(   [1600.0, 3500.0], [8.538777920e+00, 1.046118850e-02,
                -3.153797080e-06, 3.853068840e-10,
                -1.264136890e-14, 1.717663630e+04,
                -2.281817580e+01]  )
               ),
    transport = gas_transport(
                   geom = "nonlinear",
                   diam = 4.22, 
                   well_depth = 316.0, 
                   polar = 0.0, 
                   rot_relax = 1.0, 
                   quad_polar = 0.0, 